---- qbsp / ericw-tools v0.18.1 ----
Input file: miniaturetribblesmap.map
Output file: miniaturetribblesmap.bsp

---- LoadMapFile ----
         1668 faces
          284 brushes
           66 entities
           17 unique texnames
          166 texinfo

Opened WAD: E:/TempWorkspace/GitHub/miniature-tribble/wads/rogue.wad
Opened WAD: E:/TempWorkspace/GitHub/miniature-tribble/wads/prototype_1_2.wad
Opened WAD: E:/TempWorkspace/GitHub/miniature-tribble/wads/id1.wad
Processing hull 0...
---- Brush_LoadEntity ----
          284 brushes
          435 planes
---- CSGFaces ----
         1668 brushfaces
         2977 csgfaces
         2678 mergedfaces
---- SolidBSP ----
         3698 split nodes
         1068 solid leafs
         2015 empty leafs
          616 water leafs
            0 detail leafs
            0 detail illusionary leafs
            0 detail fence leafs
            0 illusionary visblocker leafs
         7361 leaffaces
         6857 nodefaces
---- Portalize ----
         2631 vis leafs
         2631 vis clusters
         6929 vis portals
---- FillOutside ----
*** WARNING 10: Reached occupant at (204 -434 156), no filling performed.
Leak file written to miniaturetribblesmap.pts
---- MakeFaceEdges ----
---- GrowRegions ----
Processing hull 1...
Processing hull 2...
---- WriteBSPFile ----
Wrote miniaturetribblesmap.bsp
          832 planes            16640
         7231 vertexes          86772
         3698 nodes             88752
          149 texinfo            5960
         6857 faces            137140
         2082 clipnodes         16656
         2632 leafs             73696
         7361 marksurfaces      14722
        27314 surfedges        109256
        18021 edges             72084
           17 textures         150352
              lightdata             0
              visdata               0
              entdata            5940

0.414 seconds elapsed
Peak memory usage: 26166974 (25.0M)
