---- qbsp / ericw-tools v0.18.1 ----
Input file: miniaturetribblesmap.map
Output file: miniaturetribblesmap.bsp

---- LoadMapFile ----
         1110 faces
          191 brushes
           28 entities
            7 unique texnames
           45 texinfo

Opened WAD: Q:/Workspace/GitHub/miniature-tribble/wads/prototype_1_2.wad
Opened WAD: Q:/Workspace/GitHub/miniature-tribble/wads/rogue.wad
Processing hull 0...
---- Brush_LoadEntity ----
          191 brushes
          275 planes
---- CSGFaces ----
         1110 brushfaces
         1467 csgfaces
         1264 mergedfaces
---- SolidBSP ----
         1142 split nodes
          480 solid leafs
          663 empty leafs
            0 water leafs
            0 detail leafs
            0 detail illusionary leafs
            0 detail fence leafs
            0 illusionary visblocker leafs
         3572 leaffaces
         3252 nodefaces
---- Portalize ----
          663 vis leafs
          663 vis clusters
         1908 vis portals
---- FillOutside ----
          205 outleafs
---- MergeAll ----
         1251 mergefaces
---- SolidBSP ----
          652 split nodes
          311 solid leafs
          342 empty leafs
            0 water leafs
            0 detail leafs
            0 detail illusionary leafs
            0 detail fence leafs
            0 illusionary visblocker leafs
         2518 leaffaces
         1926 nodefaces
---- Portalize ----
          342 vis leafs
          342 vis clusters
         1037 vis portals
---- Tjunc ----
         1369 world edges
         6454 edge points
         1412 edges added by tjunctions
            0 faces added by tjunctions
---- MakeFaceEdges ----
---- GrowRegions ----
Processing hull 1...
*** WARNING 19: No entities in empty space -- no filling performed (hull 1)
Processing hull 2...
*** WARNING 19: No entities in empty space -- no filling performed (hull 2)
---- WriteBSPFile ----
Wrote miniaturetribblesmap.bsp
          576 planes            11520
         2576 vertexes          30912
          652 nodes             15648
           27 texinfo            1080
         1926 faces             38520
         2143 clipnodes         17144
          343 leafs              9604
         2518 marksurfaces       5036
         9020 surfedges         36080
         4511 edges             18044
            7 textures          71032
              lightdata             0
              visdata               0
              entdata            2116

0.312 seconds elapsed
Peak memory usage: 12637684 (12.1M)
