---- qbsp / ericw-tools v0.18.1 ----
Input file: miniaturetribblesmap.map
Output file: miniaturetribblesmap.bsp

---- LoadMapFile ----
         1134 faces
          195 brushes
           32 entities
            7 unique texnames
           46 texinfo

Opened WAD: E:/TempWorkspace/GitHub/miniature-tribble/wads/rogue.wad
Opened WAD: E:/TempWorkspace/GitHub/miniature-tribble/wads/prototype_1_2.wad
Processing hull 0...
---- Brush_LoadEntity ----
          195 brushes
          288 planes
---- CSGFaces ----
         1134 brushfaces
         1529 csgfaces
         1321 mergedfaces
---- SolidBSP ----
         1278 split nodes
          526 solid leafs
          753 empty leafs
            0 water leafs
            0 detail leafs
            0 detail illusionary leafs
            0 detail fence leafs
            0 illusionary visblocker leafs
         3094 leaffaces
         2885 nodefaces
---- Portalize ----
          753 vis leafs
          753 vis clusters
         2331 vis portals
---- FillOutside ----
          236 outleafs
---- MergeAll ----
         1287 mergefaces
---- SolidBSP ----
          661 split nodes
          303 solid leafs
          359 empty leafs
            0 water leafs
            0 detail leafs
            0 detail illusionary leafs
            0 detail fence leafs
            0 illusionary visblocker leafs
         2367 leaffaces
         1733 nodefaces
---- Portalize ----
          359 vis leafs
          359 vis clusters
         1263 vis portals
---- Tjunc ----
         1407 world edges
         6069 edge points
         1373 edges added by tjunctions
            0 faces added by tjunctions
---- MakeFaceEdges ----
---- GrowRegions ----
Processing hull 1...
Processing hull 2...
---- WriteBSPFile ----
Wrote miniaturetribblesmap.bsp
          563 planes            11260
         2369 vertexes          28428
          661 nodes             15864
           29 texinfo            1160
         1733 faces             34660
         1707 clipnodes         13656
          360 leafs             10080
         2367 marksurfaces       4734
         8210 surfedges         32840
         4106 edges             16424
            7 textures          71032
              lightdata             0
              visdata               0
              entdata            2743

0.332 seconds elapsed
Peak memory usage: 11967966 (11.4M)
