---- qbsp / ericw-tools v0.18.1 ----
Input file: miniaturetribblesmap.map
Output file: miniaturetribblesmap.bsp

---- LoadMapFile ----
         1050 faces
          179 brushes
           20 entities
            6 unique texnames
           37 texinfo

Opened WAD: E:/TempWorkspace/GitHub/miniature-tribble/wads/rogue.wad
Opened WAD: E:/TempWorkspace/GitHub/miniature-tribble/wads/prototype_1_2.wad
Processing hull 0...
---- Brush_LoadEntity ----
          179 brushes
          253 planes
---- CSGFaces ----
         1050 brushfaces
         1374 csgfaces
         1189 mergedfaces
---- SolidBSP ----
         1013 split nodes
          417 solid leafs
          597 empty leafs
            0 water leafs
            0 detail leafs
            0 detail illusionary leafs
            0 detail fence leafs
            0 illusionary visblocker leafs
         3289 leaffaces
         3043 nodefaces
---- Portalize ----
          597 vis leafs
          597 vis clusters
         1641 vis portals
---- FillOutside ----
*** WARNING 10: Reached occupant at (-416 -448 56), no filling performed.
Leak file written to miniaturetribblesmap.pts
---- MakeFaceEdges ----
---- GrowRegions ----
Processing hull 1...
*** WARNING 19: No entities in empty space -- no filling performed (hull 1)
Processing hull 2...
*** WARNING 19: No entities in empty space -- no filling performed (hull 2)
---- WriteBSPFile ----
Wrote miniaturetribblesmap.bsp
          505 planes            10100
         3821 vertexes          45852
         1013 nodes             24312
           24 texinfo             960
         3043 faces             60860
         1852 clipnodes         14816
          598 leafs             16744
         3289 marksurfaces       6578
        12081 surfedges         48324
         7828 edges             31312
            6 textures          49228
              lightdata             0
              visdata               0
              entdata             834

0.240 seconds elapsed
Peak memory usage: 13672098 (13.0M)
