---- qbsp / ericw-tools v0.18.1 ----
Input file: miniaturetribblesmap.map
Output file: miniaturetribblesmap.bsp

---- LoadMapFile ----
         1110 faces
          191 brushes
           32 entities
            7 unique texnames
           46 texinfo

Opened WAD: Q:/Workspace/GitHub/miniature-tribble/wads/prototype_1_2.wad
Opened WAD: Q:/Workspace/GitHub/miniature-tribble/wads/rogue.wad
Processing hull 0...
---- Brush_LoadEntity ----
          191 brushes
          278 planes
---- CSGFaces ----
         1110 brushfaces
         1472 csgfaces
         1268 mergedfaces
---- SolidBSP ----
         1161 split nodes
          489 solid leafs
          673 empty leafs
            0 water leafs
            0 detail leafs
            0 detail illusionary leafs
            0 detail fence leafs
            0 illusionary visblocker leafs
         3628 leaffaces
         3289 nodefaces
---- Portalize ----
          673 vis leafs
          673 vis clusters
         1952 vis portals
---- FillOutside ----
          207 outleafs
---- MergeAll ----
         1256 mergefaces
---- SolidBSP ----
          656 split nodes
          312 solid leafs
          345 empty leafs
            0 water leafs
            0 detail leafs
            0 detail illusionary leafs
            0 detail fence leafs
            0 illusionary visblocker leafs
         2544 leaffaces
         1932 nodefaces
---- Portalize ----
          345 vis leafs
          345 vis clusters
         1044 vis portals
---- Tjunc ----
         1372 world edges
         6474 edge points
         1422 edges added by tjunctions
            0 faces added by tjunctions
---- MakeFaceEdges ----
---- GrowRegions ----
Processing hull 1...
*** WARNING 19: No entities in empty space -- no filling performed (hull 1)
Processing hull 2...
*** WARNING 19: No entities in empty space -- no filling performed (hull 2)
---- WriteBSPFile ----
Wrote miniaturetribblesmap.bsp
          577 planes            11540
         2585 vertexes          31020
          656 nodes             15744
           28 texinfo            1120
         1932 faces             38640
         2178 clipnodes         17424
          346 leafs              9688
         2544 marksurfaces       5088
         9052 surfedges         36208
         4527 edges             18108
            7 textures          71032
              lightdata             0
              visdata               0
              entdata            2662

0.422 seconds elapsed
Peak memory usage: 12711092 (12.1M)
